HEHE
.ic v(1)=3.586922E-7 v(2)=1.0
VR1 2R1 2 0
R1 1 2R1 1
VL2 0L2 0 0
L2 1 0L2 1 ic=0.9999996
V4 2 0 PULSE(1 1 0s 1fs 1fs)
.model switch1 sw vt=1
.model diode1 D(Ron=0.1 Roff=1Meg Vfwd=0.7)
.model QMODN NPN level=1
.model QMODP PNP level=1
.control
tran 0.0107s 0.107s uic
let k = length(time) - 1
print time[k] i(VR1)[k] i(VL2)[k] i(V4)[k] v(1)[k] v(2)[k]
.endc
.end
