HEHE
.ic v(1)=5.0 v(2)=2.5
R1 0 2R1 1
VR1 2R1 2 0
S3 2 1S3 6 0 switch1 ON
VST3 6 0 2
VS3 1S3 1 0
V4 1 0V4 PULSE(5 5 0s 1fs 1fs)
VV4 0V4 0 0
.model switch1 sw vt=1
.model diode1 D(Ron=0.1 Roff=1Meg Vfwd=0.7)
.control
tran 0.0107s 0.107s uic
let k = length(time) - 1
print time[k] i(VR1)[k] i(VS3)[k] i(VV4)[k] v(1)[k] v(2)[k]
.endc
.end
