HEHE
.ic v(1)=54.0 v(2)=0.4808523 v(3)=66.0 v(4)=66.0
V1 1 0 PULSE(54 54 0s 1fs 1fs)
S2 2 1S2 7 0 switch1 OFF
VST2 7 0 0
VS2 1S2 1 0
V4 4 0 PULSE(66 66 0s 1fs 1fs)
Q5 3Q5 2Q5 0Q5 QMODN ic=0.0, 0.0
VQ5C 3Q5 3 0
VQ5B 2Q5 2 0
VQ5E 0Q5 0 0
VR6 3R6 3 0
R6 4 3R6 1
.model switch1 sw vt=1
.model diode1 D(Ron=0.1 Roff=1Meg Vfwd=0.7)
.model QMODN NPN level=1
.control
tran 0.0107s 0.107s uic
let k = length(time) - 1
print time[k] i(V1)[k] i(VS2)[k] i(V4)[k] i(VQ5C)[k] i(VQ5B)[k] i(VQ5E)[k] i(VR6)[k] v(1)[k] v(2)[k] v(3)[k] v(4)[k]
.endc
.end
