HEHE
.ic v(1)=3.0 v(2)=5.0
V1 2 0V1 PULSE(5 5 0s 1fs 1fs)
VV1 0V1 0 0
Q2 2 1 0 QMODN
V4 1 0V4 PULSE(3 3 0s 1fs 1fs)
VV4 0V4 0 0
.model switch1 sw vt=1
.model diode1 D(Ron=0.1 Roff=1Meg Vfwd=0.7)
.model QMODN NPN level=1
.control
tran 0.0105s 0.105s uic
let k = length(time) - 1
print time[k] i(VV1)[k] i(VV4)[k] v(1)[k] v(2)[k]
.endc
.end
