HEHE
.ic v(1)=-0.0181545 v(2)=100.0 v(3)=-0.00907724 v(4)=100.0
S1 1 4S1 6 0 switch1 OFF
VST1 6 0 0
VS1 4S1 4 0
R2 2 4R2 1
VR2 4R2 4 0
V4 2 0V4 PULSE(100 100 0s 1fs 1fs)
VV4 0V4 0 0
S5 1 3S5 10 0 switch1 ON
VST5 10 0 2
VS5 3S5 3 0
R6 0 3R6 1
VR6 3R6 3 0
L7 1 0L7 1 ic=0.009077237
VL7 0L7 0 0
.model switch1 sw vt=1
.model diode1 D(Ron=0.1 Roff=1Meg Vfwd=0.7)
.model QMODN NPN level=1
.control
tran 0.011s 0.11s uic
let k = length(time) - 1
print time[k] i(VS1)[k] i(VR2)[k] i(VV4)[k] i(VS5)[k] i(VR6)[k] i(VL7)[k] v(1)[k] v(2)[k] v(3)[k] v(4)[k]
.endc
.end
