HEHE
.ic v(1)=1.0
V3 1 0 PULSE(-1 1 -4.385s 1fs 1fs423ms 846ms 
VR4 0R4 0 0
R4 1 0R4 1
.model switch1 sw vt=1
.model diode1 D(Ron=0.1 Roff=1Meg Vfwd=0.7)
.model QMODN NPN level=1
.model QMODP PNP level=1
.control
tran 0.0107s 0.107s uic
let k = length(time) - 1
print time[k] i(V3)[k] i(VR4)[k] v(1)[k]
.endc
.end
