HEHE
.ic v(1)=5.0 v(2)=0.3418106 v(3)=4.658189
V1 1 0 PULSE(5 5 0s 1fs 1fs)
RD2 3 3DD2 1
VD2 2D2 2 0
D2 3DD2 2D2 led ic=4.316378
S3 3 1S3 7 0 switch1 ON
VST3 7 0 2
VS3 1S3 1 0
VR5 0R5 0 0
R5 2 0R5 1
.model switch1 sw vt=1
.model diode1 D
.model led D(is=1e-22 rs=6 n=1.5 cjo=50p xti=100)
.model QMODN NPN level=1
.model QMODP PNP level=1
.control
tran 0.0109s 0.109s uic
let k = length(time) - 1
print time[k] i(V1)[k] i(VD2)[k] i(VS3)[k] i(VR5)[k] v(1)[k] v(2)[k] v(3)[k]
.endc
.end
