HEHE
.ic v(1)=1.958823
VR1 0R1 0 0
R1 1 0R1 2
I2 0 1 PULSE(1 1 0s 1fs 1fs)
RD4 1 1DD4 1
VD4 0D4 0 0
D4 1DD4 0D4 led ic=1.958823
.model switch1 sw vt=1
.model diode1 D
.model led D(is=1e-22 rs=6 n=1.5 cjo=50p xti=100)
.model QMODN NPN level=1
.model QMODP PNP level=1
.model MOSN NMOS level=1
.model MOSP PMOS level=1
.control
tran 0.0025s 0.025s uic
let k = length(time) - 1
print time[k] i(VR1)[k] i(VD4)[k] v(1)[k]
.endc
.end
