HEHE
.ic v(1)=100.0 v(2)=3.576177E-4
R1 2 1R1 1
VR1 1R1 1 0
V2 1 0V2 PULSE(100 100 0s 1fs 1fs)
VV2 0V2 0 0
L3 0 2L3 1 ic=-99.9996
VL3 2L3 2 0
.model switch1 sw vt=1
.model diode1 D(Ron=0.1 Roff=1Meg Vfwd=0.7)
.model QMODN NPN level=1
.control
tran 0.0109s 0.109s uic
let k = length(time) - 1
print time[k] i(VR1)[k] i(VV2)[k] i(VL3)[k] v(1)[k] v(2)[k]
.endc
.end
