HEHE
.ic v(1)=1.0 v(2)=0.9983476
V1 1 0 PULSE(1 1 0s 1fs 1fs)
R2 0 2 1
L4 2 1i 1 ic=-0.998348
Vl4 1i 1 0
.model switch1 sw vt=1
.model diode1 D(Ron=0.1 Roff=1Meg Vfwd=0.7)
.control
tran 0.0106s 0.106s uic
let k = length(time) - 1
print time[k] i(Vl4)[k] v(1)[k] v(2)[k]
.endc
.end
